/*--------------------------------*- C++ -*----------------------------------*\
| =========                 |                                                 |
| \\      /  F ield         | OpenFOAM: The Open Source CFD Toolbox           |
|  \\    /   O peration     | Version:  v1806                                 |
|   \\  /    A nd           | Web:      www.OpenFOAM.com                      |
|    \\/     M anipulation  |                                                 |
\*---------------------------------------------------------------------------*/
FoamFile
{
    version     2.0;
    format      ascii;
    class       vectorField;
    object      kinematicCloudPositions;
}
// * * * * * * * * * * * * * * * * * * * * * * * * * * * * * * * * * * * * * //


(
 (0.05 0.2 0.2)
 (0.05 0.4 0.2)
 (0.05 0.6 0.2)
 (0.05 0.8 0.2)
 (0.05 0.2 0.4)
 (0.05 0.4 0.4)
 (0.05 0.6 0.4)
 (0.05 0.8 0.4)
 (0.05 0.2 0.6)
 (0.05 0.4 0.6)
 (0.05 0.6 0.6)
 (0.05 0.8 0.6)
 (0.05 0.2 0.8)
 (0.05 0.4 0.8)
 (0.05 0.6 0.8)
 (0.05 0.8 0.8)
)

// ************************************************************************* //
