/*--------------------------------*- C++ -*----------------------------------*\
| =========                 |                                                 |
| \\      /  F ield         | OpenFOAM: The Open Source CFD Toolbox           |
|  \\    /   O peration     | Version:  3.0.1                                 |
|   \\  /    A nd           | Web:      www.OpenFOAM.org                      |
|    \\/     M anipulation  |                                                 |
\*---------------------------------------------------------------------------*/
FoamFile
{
    version     2.0;
    format      ascii;
    class       dictionary;
    location    "system";
    object      particleTrackProperties;
}
// * * * * * * * * * * * * * * * * * * * * * * * * * * * * * * * * * * * * * //

// general
maxTimeStep 1000;		// maximum number of timesteps to take

// for "points" method
coordinates			// list of coordinates for starting of particle
(
 (1 2 3)
 (4 5 6)
 (7 8 9)
 );

// for "patch" method
inletPatchName inlet;		// patch name to start particles from

// for "backTrack" method
outletPatchName outlet;		// patch name which to backtrack particles from

// ************************************************************************* //
